<h2>PRODUCTS: </h2>
<div id="Accordion1" class="Accordion" tabindex="0">
 <div class="AccordionPanel">
  <div class="AccordionPanelTab">CAD</div>
  <div class="AccordionPanelContent">
   <p> <a href="/software/CAD/index.html">Overview</a> <a href="/software/CAD/contact.html">Request a Quote</a> <a href="/support/CAD/index.html">CAD Support</a> <a href="http://www.plm.automation.siemens.com/en_us/products/nx/design/index.shtml"target="_blank">Visit Siemens Website</a> </p>
  </div>
 </div>
 <div class="AccordionPanel">
  <div class="AccordionPanelTab">CAM</div>
  <div class="AccordionPanelContent">
   <p> <a href="/software/CAM/index.html">Overview</a> <a href="/software/CAM/contact.html">Request a Quote</a> <a href="/support/CAM/index.html">CAM Support</a> <a href="http://www.plm.automation.siemens.com/en_us/products/nx/machining/index.shtml"target="_blank">Visit Siemens CAM Website</a>
    <a href="/software/CAM/CNC.html"target="_blank">Post-processor & Simulation Kits</a></p>
  </div>
 </div>
 <div class="AccordionPanel">
  <div class="AccordionPanelTab">CAE</div>
  <div class="AccordionPanelContent">
   <p> <a href="/software/CAE/Femap/index.html">Femap</a> <a href="/software/CAE/NX_Nastran/index.html">NX Nastran</a> <a href="/software/CAE/LS_DYNA/index.html">LS-DYNA</a><br />
    <a href="/software/CAE/contact.html">Request a Quote</a> <a href="/support/CAE/index.html">CAE Support</a> <a href="http://www.plm.automation.siemens.com/en_us/products/velocity/femap/femap_10.shtml"target="_blank">Visit Siemens Website</a> </p>
  </div>
 </div>
 <div class="AccordionPanel">
  <div class="AccordionPanelTab">PLM</div>
  <div class="AccordionPanelContent">
   <p> <a href="/software/PLM/index.html">Overview</a> <a href="/software/PLM/docs/PLM_brochure.pdf" target="_blank">View PDF Brochure</a> <a href="/software/PLM/contact.html">Request a Quote</a> <a href="/support/PLM/index.html">PLM Support</a> <a href="http://www.plm.automation.siemens.com/en_us/products/teamcenter/solutions_by_product/index.shtml"target="_blank">Visit Siemens PLM Website</a> </p>
  </div>
 </div>
 <div class="AccordionPanel">
  <div class="AccordionPanelTab">FIBERSIM</div>
  <div class="AccordionPanelContent">
   <p> <a href="/software/FIBERSIM/index.html">Overview</a> <a href="info/Brochure-Siemens-PLM-Fibersim-Product-Line-fs-X12.pdf" target="_blank">View PDF Brochure</a> <a href="contact.html">Request a Quote</a><a href="info/Whats-New-Siemens-PLM-Fibersim-13-fs-X9.pdf">What's new in Fibersim 13</a><a href="info/White-Paper-Siemens-PLM-SES-Reducing-Weight-in-Composite-Aerostructures.pdf">Read the Fibersim White Paper</a><a href="http://www.plm.automation.siemens.com/en_us/products/fibersim/">Visit Siemens Fibersim Website</a></p>
  </div>
 </div>
  <div class="AccordionPanel">
  <div class="AccordionPanelTab">BCT</div>
  <div class="AccordionPanelContent">
   <p> <a href="/software/BCT/index.html">Overview</a> <a href="contact.html">Request a Quote</a><a href="info/factsheet_bct_inspectorsuite.pdf" target="_blank">View BCT Inspector Suite PDF</a> <a href="info/factsheet_bct_3drastersuite.pdf" target="_blank">View BCT 3D Raster Suite PDF</a><a href="http://www.bct-technology.com/en/">Visit Siemens Website</a></p>
  </div>
 </div>
</div>